8
p-xylene-trappe.xyz
C          0.00000  1.40000 0.00000
CH         1.21244  0.70000 0.00000
CH         1.21244 -0.70000 0.00000
C          0.00000 -1.40000 0.00000
CH        -1.21244 -0.70000 0.00000
CH        -1.21244  0.70000 0.00000
CH3        0.00000  2.94000 0.00000
CH3        0.00000 -2.94000 0.00000
